data_cdia
_audit_creation_date              2007-10-11
_audit_creation_method            'Materials Studio'
_symmetry_space_group_name_H-M    'P1'
_symmetry_Int_Tables_number       1
_symmetry_cell_setting            triclinic
loop_
_symmetry_equiv_pos_as_xyz
  x,y,z
_cell_length_a                    5.0346
_cell_length_b                    5.0346
_cell_length_c                    5.0346
_cell_angle_alpha                 60.0000
_cell_angle_beta                  60.0000
_cell_angle_gamma                 60.0000
loop_
_atom_site_label
_atom_site_type_symbol
_atom_site_fract_x
_atom_site_fract_y
_atom_site_fract_z
_atom_site_Uiso_or_equiv
_atom_site_adp_type
_atom_site_occupancy
A1     C     0.00000   0.00000   0.00000   0.00000  Uiso   1.00
A2     C     0.87500   0.37500   0.87500   0.00000  Uiso   1.00
A3     C     0.00000   0.50000  -0.00000   0.00000  Uiso   1.00
A4     C     0.87500   0.87500   0.87500   0.00000  Uiso   1.00
A5     C     0.00000   0.50000   0.50000   0.00000  Uiso   1.00
A6     C     0.87500   0.87500   0.37500   0.00000  Uiso   1.00
A7     C     0.00000   1.00000   0.50000   0.00000  Uiso   1.00
A8     C     0.87500   0.37500   0.37500   0.00000  Uiso   1.00
A9     C     0.50000   0.50000  -0.00000   0.00000  Uiso   1.00
A10    C     0.37500   0.87500   0.87500   0.00000  Uiso   1.00
A11    C     0.50000   1.00000  -0.00000   0.00000  Uiso   1.00
A12    C     0.37500   0.37500   0.87500   0.00000  Uiso   1.00
A13    C     0.50000   1.00000   0.50000   0.00000  Uiso   1.00
A14    C     0.37500   0.37500   0.37500   0.00000  Uiso   1.00
A15    C     0.50000   0.50000   0.50000   0.00000  Uiso   1.00
A16    C     0.37500   0.87500   0.37500   0.00000  Uiso   1.00
