data_image0
_chemical_formula_structural       C364
_chemical_formula_sum              "C364"
_cell_length_a       23.4669
_cell_length_b       23.4669
_cell_length_c       21
_cell_angle_alpha    90
_cell_angle_beta     90
_cell_angle_gamma    60

_space_group_name_H-M_alt    "P 1"
_space_group_IT_number       1

loop_
  _space_group_symop_operation_xyz
  'x, y, z'

loop_
  _atom_site_type_symbol
  _atom_site_label
  _atom_site_symmetry_multiplicity
  _atom_site_fract_x
  _atom_site_fract_y
  _atom_site_fract_z
  _atom_site_occupancy
  C   C1        1.0  0.00000  1.00000  0.00324  1.0000
  C   C2        1.0  0.00365  0.05861  0.00332  1.0000
  C   C3        1.0  0.06593  0.05495  0.00325  1.0000
  C   C4        1.0  0.06958  0.11356  0.00331  1.0000
  C   C5        1.0  0.05495  0.87912  0.00325  1.0000
  C   C6        1.0  0.05861  0.93773  0.00332  1.0000
  C   C7        1.0  0.13187  0.10989  0.00326  1.0000
  C   C8        1.0  0.13552  0.16851  0.00328  1.0000
  C   C9        1.0  0.10989  0.75824  0.00326  1.0000
  C   C10       1.0  0.11356  0.81685  0.00331  1.0000
  C   C11       1.0  0.19781  0.16483  0.00328  1.0000
  C   C12       1.0  0.20147  0.22344  0.00326  1.0000
  C   C13       1.0  0.16483  0.63736  0.00328  1.0000
  C   C14       1.0  0.16851  0.69597  0.00328  1.0000
  C   C15       1.0  0.26375  0.21977  0.00331  1.0000
  C   C16       1.0  0.26740  0.27838  0.00325  1.0000
  C   C17       1.0  0.21977  0.51648  0.00331  1.0000
  C   C18       1.0  0.22344  0.57509  0.00326  1.0000
  C   C19       1.0  0.32968  0.27472  0.00332  1.0000
  C   C20       1.0  0.33333  0.33333  0.00324  1.0000
  C   C21       1.0  0.27472  0.39560  0.00332  1.0000
  C   C22       1.0  0.27838  0.45421  0.00325  1.0000
  C   C23       1.0  0.12088  0.93408  0.00324  1.0000
  C   C24       1.0  0.12454  0.99269  0.00331  1.0000
  C   C25       1.0  0.18682  0.98902  0.00325  1.0000
  C   C26       1.0  0.19048  0.04764  0.00329  1.0000
  C   C27       1.0  0.17582  0.81321  0.00325  1.0000
  C   C28       1.0  0.17949  0.87182  0.00330  1.0000
  C   C29       1.0  0.25276  0.04396  0.00326  1.0000
  C   C30       1.0  0.25642  0.10258  0.00327  1.0000
  C   C31       1.0  0.23076  0.69233  0.00327  1.0000
  C   C32       1.0  0.23443  0.75094  0.00328  1.0000
  C   C33       1.0  0.31871  0.09890  0.00328  1.0000
  C   C34       1.0  0.32236  0.15751  0.00325  1.0000
  C   C35       1.0  0.28570  0.57145  0.00329  1.0000
  C   C36       1.0  0.28937  0.63006  0.00326  1.0000
  C   C37       1.0  0.38464  0.15384  0.00330  1.0000
  C   C38       1.0  0.38829  0.21245  0.00324  1.0000
  C   C39       1.0  0.34064  0.45057  0.00331  1.0000
  C   C40       1.0  0.34431  0.50918  0.00325  1.0000
  C   C41       1.0  0.45057  0.20879  0.00331  1.0000
  C   C42       1.0  0.45421  0.26740  0.00325  1.0000
  C   C43       1.0  0.39560  0.32968  0.00332  1.0000
  C   C44       1.0  0.39926  0.38829  0.00324  1.0000
  C   C45       1.0  0.24176  0.86816  0.00324  1.0000
  C   C46       1.0  0.24543  0.92677  0.00329  1.0000
  C   C47       1.0  0.30771  0.92310  0.00324  1.0000
  C   C48       1.0  0.31137  0.98171  0.00327  1.0000
  C   C49       1.0  0.29669  0.74729  0.00325  1.0000
  C   C50       1.0  0.30037  0.80590  0.00327  1.0000
  C   C51       1.0  0.37366  0.97803  0.00326  1.0000
  C   C52       1.0  0.37732  0.03664  0.00325  1.0000
  C   C53       1.0  0.35162  0.62642  0.00327  1.0000
  C   C54       1.0  0.35530  0.68502  0.00326  1.0000
  C   C55       1.0  0.43960  0.03296  0.00327  1.0000
  C   C56       1.0  0.44325  0.09157  0.00324  1.0000
  C   C57       1.0  0.40656  0.50553  0.00329  1.0000
  C   C58       1.0  0.41023  0.56414  0.00324  1.0000
  C   C59       1.0  0.50553  0.08790  0.00329  1.0000
  C   C60       1.0  0.50918  0.14652  0.00325  1.0000
  C   C61       1.0  0.46152  0.38464  0.00330  1.0000
  C   C62       1.0  0.46517  0.44325  0.00324  1.0000
  C   C63       1.0  0.57145  0.14285  0.00329  1.0000
  C   C64       1.0  0.57509  0.20147  0.00326  1.0000
  C   C65       1.0  0.51648  0.26375  0.00331  1.0000
  C   C66       1.0  0.52013  0.32236  0.00325  1.0000
  C   C67       1.0  0.36264  0.80223  0.00323  1.0000
  C   C68       1.0  0.36632  0.86084  0.00325  1.0000
  C   C69       1.0  0.42859  0.85716  0.00323  1.0000
  C   C70       1.0  0.43226  0.91577  0.00324  1.0000
  C   C71       1.0  0.41756  0.68136  0.00324  1.0000
  C   C72       1.0  0.42124  0.73997  0.00324  1.0000
  C   C73       1.0  0.49455  0.91209  0.00324  1.0000
  C   C74       1.0  0.49821  0.97069  0.00323  1.0000
  C   C75       1.0  0.47249  0.56049  0.00325  1.0000
  C   C76       1.0  0.47617  0.61909  0.00323  1.0000
  C   C77       1.0  0.56049  0.96702  0.00325  1.0000
  C   C78       1.0  0.56414  0.02563  0.00324  1.0000
  C   C79       1.0  0.52744  0.43960  0.00327  1.0000
  C   C80       1.0  0.53110  0.49821  0.00323  1.0000
  C   C81       1.0  0.62642  0.02196  0.00327  1.0000
  C   C82       1.0  0.63006  0.08057  0.00326  1.0000
  C   C83       1.0  0.58239  0.31871  0.00328  1.0000
  C   C84       1.0  0.58604  0.37732  0.00325  1.0000
  C   C85       1.0  0.69233  0.07691  0.00327  1.0000
  C   C86       1.0  0.69597  0.13552  0.00328  1.0000
  C   C87       1.0  0.63736  0.19781  0.00328  1.0000
  C   C88       1.0  0.64100  0.25642  0.00327  1.0000
  C   C89       1.0  0.48352  0.73630  0.00322  1.0000
  C   C90       1.0  0.48719  0.79490  0.00322  1.0000
  C   C91       1.0  0.54947  0.79122  0.00321  1.0000
  C   C92       1.0  0.55315  0.84982  0.00322  1.0000
  C   C93       1.0  0.53844  0.61542  0.00322  1.0000
  C   C94       1.0  0.54212  0.67402  0.00321  1.0000
  C   C95       1.0  0.61542  0.84614  0.00322  1.0000
  C   C96       1.0  0.61909  0.90474  0.00323  1.0000
  C   C97       1.0  0.59337  0.49455  0.00324  1.0000
  C   C98       1.0  0.59704  0.55315  0.00322  1.0000
  C   C99       1.0  0.68136  0.90107  0.00324  1.0000
  C   C100      1.0  0.68502  0.95968  0.00326  1.0000
  C   C101      1.0  0.64831  0.37366  0.00326  1.0000
  C   C102      1.0  0.65197  0.43226  0.00324  1.0000
  C   C103      1.0  0.74729  0.95602  0.00325  1.0000
  C   C104      1.0  0.75094  0.01463  0.00328  1.0000
  C   C105      1.0  0.70327  0.25276  0.00326  1.0000
  C   C106      1.0  0.70692  0.31137  0.00327  1.0000
  C   C107      1.0  0.81321  0.01097  0.00325  1.0000
  C   C108      1.0  0.81685  0.06958  0.00331  1.0000
  C   C109      1.0  0.75824  0.13187  0.00326  1.0000
  C   C110      1.0  0.76188  0.19048  0.00329  1.0000
  C   C111      1.0  0.60439  0.67035  0.00320  1.0000
  C   C112      1.0  0.60807  0.72894  0.00320  1.0000
  C   C113      1.0  0.67035  0.72526  0.00320  1.0000
  C   C114      1.0  0.67402  0.78386  0.00321  1.0000
  C   C115      1.0  0.65931  0.54947  0.00321  1.0000
  C   C116      1.0  0.66299  0.60807  0.00320  1.0000
  C   C117      1.0  0.73630  0.78019  0.00322  1.0000
  C   C118      1.0  0.73997  0.83879  0.00324  1.0000
  C   C119      1.0  0.71424  0.42859  0.00323  1.0000
  C   C120      1.0  0.71791  0.48719  0.00322  1.0000
  C   C121      1.0  0.80223  0.83513  0.00323  1.0000
  C   C122      1.0  0.80590  0.89373  0.00327  1.0000
  C   C123      1.0  0.76919  0.30771  0.00324  1.0000
  C   C124      1.0  0.77285  0.36632  0.00325  1.0000
  C   C125      1.0  0.86816  0.89008  0.00324  1.0000
  C   C126      1.0  0.87182  0.94869  0.00330  1.0000
  C   C127      1.0  0.82416  0.18682  0.00325  1.0000
  C   C128      1.0  0.82780  0.24543  0.00329  1.0000
  C   C129      1.0  0.93408  0.94504  0.00324  1.0000
  C   C130      1.0  0.93773  0.00365  0.00332  1.0000
  C   C131      1.0  0.87912  0.06593  0.00325  1.0000
  C   C132      1.0  0.88277  0.12454  0.00331  1.0000
  C   C133      1.0  0.72526  0.60439  0.00320  1.0000
  C   C134      1.0  0.72894  0.66299  0.00320  1.0000
  C   C135      1.0  0.79122  0.65931  0.00321  1.0000
  C   C136      1.0  0.79490  0.71791  0.00322  1.0000
  C   C137      1.0  0.78019  0.48352  0.00322  1.0000
  C   C138      1.0  0.78386  0.54212  0.00321  1.0000
  C   C139      1.0  0.85716  0.71424  0.00323  1.0000
  C   C140      1.0  0.86084  0.77285  0.00325  1.0000
  C   C141      1.0  0.83513  0.36264  0.00323  1.0000
  C   C142      1.0  0.83879  0.42124  0.00324  1.0000
  C   C143      1.0  0.92310  0.76919  0.00324  1.0000
  C   C144      1.0  0.92677  0.82780  0.00329  1.0000
  C   C145      1.0  0.89008  0.24176  0.00324  1.0000
  C   C146      1.0  0.89373  0.30037  0.00327  1.0000
  C   C147      1.0  0.98902  0.82416  0.00325  1.0000
  C   C148      1.0  0.99269  0.88277  0.00331  1.0000
  C   C149      1.0  0.94504  0.12088  0.00324  1.0000
  C   C150      1.0  0.94869  0.17949  0.00330  1.0000
  C   C151      1.0  0.84614  0.53844  0.00322  1.0000
  C   C152      1.0  0.84982  0.59704  0.00322  1.0000
  C   C153      1.0  0.91209  0.59337  0.00324  1.0000
  C   C154      1.0  0.91577  0.65197  0.00324  1.0000
  C   C155      1.0  0.90107  0.41756  0.00324  1.0000
  C   C156      1.0  0.90474  0.47617  0.00323  1.0000
  C   C157      1.0  0.97803  0.64831  0.00326  1.0000
  C   C158      1.0  0.98171  0.70692  0.00327  1.0000
  C   C159      1.0  0.95602  0.29669  0.00325  1.0000
  C   C160      1.0  0.95968  0.35530  0.00326  1.0000
  C   C161      1.0  0.04396  0.70327  0.00326  1.0000
  C   C162      1.0  0.04764  0.76188  0.00329  1.0000
  C   C163      1.0  0.01097  0.17582  0.00325  1.0000
  C   C164      1.0  0.01463  0.23443  0.00328  1.0000
  C   C165      1.0  0.96702  0.47249  0.00325  1.0000
  C   C166      1.0  0.97069  0.53110  0.00323  1.0000
  C   C167      1.0  0.03296  0.52744  0.00327  1.0000
  C   C168      1.0  0.03664  0.58604  0.00325  1.0000
  C   C169      1.0  0.02196  0.35162  0.00327  1.0000
  C   C170      1.0  0.02563  0.41023  0.00324  1.0000
  C   C171      1.0  0.09890  0.58239  0.00328  1.0000
  C   C172      1.0  0.10258  0.64100  0.00327  1.0000
  C   C173      1.0  0.07691  0.23076  0.00327  1.0000
  C   C174      1.0  0.08057  0.28937  0.00326  1.0000
  C   C175      1.0  0.08790  0.40656  0.00329  1.0000
  C   C176      1.0  0.09157  0.46517  0.00324  1.0000
  C   C177      1.0  0.15384  0.46152  0.00330  1.0000
  C   C178      1.0  0.15751  0.52013  0.00325  1.0000
  C   C179      1.0  0.14285  0.28570  0.00329  1.0000
  C   C180      1.0  0.14652  0.34431  0.00325  1.0000
  C   C181      1.0  0.20879  0.34064  0.00331  1.0000
  C   C182      1.0  0.21245  0.39926  0.00324  1.0000
  C   C183      1.0  0.93773  0.05861  0.15620  1.0000
  C   C184      1.0  0.93408  0.12088  0.15628  1.0000
  C   C185      1.0  0.99269  0.12454  0.15621  1.0000
  C   C186      1.0  0.98902  0.18682  0.15627  1.0000
  C   C187      1.0  0.00365  0.93773  0.15620  1.0000
  C   C188      1.0  0.00000  1.00000  0.15628  1.0000
  C   C189      1.0  0.04764  0.19048  0.15623  1.0000
  C   C190      1.0  0.04396  0.25276  0.15626  1.0000
  C   C191      1.0  0.06958  0.81685  0.15622  1.0000
  C   C192      1.0  0.06593  0.87912  0.15628  1.0000
  C   C193      1.0  0.10258  0.25642  0.15625  1.0000
  C   C194      1.0  0.09890  0.31871  0.15624  1.0000
  C   C195      1.0  0.13552  0.69597  0.15624  1.0000
  C   C196      1.0  0.13187  0.75824  0.15626  1.0000
  C   C197      1.0  0.15751  0.32236  0.15627  1.0000
  C   C198      1.0  0.15384  0.38464  0.15622  1.0000
  C   C199      1.0  0.20147  0.57509  0.15626  1.0000
  C   C200      1.0  0.19781  0.63736  0.15624  1.0000
  C   C201      1.0  0.21245  0.38829  0.15628  1.0000
  C   C202      1.0  0.20879  0.45057  0.15621  1.0000
  C   C203      1.0  0.26740  0.45421  0.15628  1.0000
  C   C204      1.0  0.26375  0.51648  0.15622  1.0000
  C   C205      1.0  0.05861  0.00365  0.15620  1.0000
  C   C206      1.0  0.05495  0.06593  0.15628  1.0000
  C   C207      1.0  0.11356  0.06958  0.15622  1.0000
  C   C208      1.0  0.10989  0.13187  0.15626  1.0000
  C   C209      1.0  0.12454  0.88277  0.15621  1.0000
  C   C210      1.0  0.12088  0.94504  0.15628  1.0000
  C   C211      1.0  0.16851  0.13552  0.15624  1.0000
  C   C212      1.0  0.16483  0.19781  0.15624  1.0000
  C   C213      1.0  0.19048  0.76188  0.15623  1.0000
  C   C214      1.0  0.18682  0.82416  0.15627  1.0000
  C   C215      1.0  0.22344  0.20147  0.15626  1.0000
  C   C216      1.0  0.21977  0.26375  0.15622  1.0000
  C   C217      1.0  0.25642  0.64100  0.15625  1.0000
  C   C218      1.0  0.25276  0.70327  0.15626  1.0000
  C   C219      1.0  0.27838  0.26740  0.15628  1.0000
  C   C220      1.0  0.27472  0.32968  0.15620  1.0000
  C   C221      1.0  0.32236  0.52013  0.15627  1.0000
  C   C222      1.0  0.31871  0.58239  0.15624  1.0000
  C   C223      1.0  0.33333  0.33333  0.15628  1.0000
  C   C224      1.0  0.32968  0.39560  0.15620  1.0000
  C   C225      1.0  0.38829  0.39926  0.15628  1.0000
  C   C226      1.0  0.38464  0.46152  0.15622  1.0000
  C   C227      1.0  0.17949  0.94869  0.15622  1.0000
  C   C228      1.0  0.17582  0.01097  0.15627  1.0000
  C   C229      1.0  0.23443  0.01463  0.15624  1.0000
  C   C230      1.0  0.23076  0.07691  0.15625  1.0000
  C   C231      1.0  0.24543  0.82780  0.15624  1.0000
  C   C232      1.0  0.24176  0.89008  0.15628  1.0000
  C   C233      1.0  0.28937  0.08057  0.15626  1.0000
  C   C234      1.0  0.28570  0.14285  0.15623  1.0000
  C   C235      1.0  0.31137  0.70692  0.15626  1.0000
  C   C236      1.0  0.30771  0.76919  0.15628  1.0000
  C   C237      1.0  0.34431  0.14652  0.15627  1.0000
  C   C238      1.0  0.34064  0.20879  0.15621  1.0000
  C   C239      1.0  0.37732  0.58604  0.15627  1.0000
  C   C240      1.0  0.37366  0.64831  0.15627  1.0000
  C   C241      1.0  0.39926  0.21245  0.15628  1.0000
  C   C242      1.0  0.39560  0.27472  0.15620  1.0000
  C   C243      1.0  0.44325  0.46517  0.15628  1.0000
  C   C244      1.0  0.43960  0.52744  0.15625  1.0000
  C   C245      1.0  0.45421  0.27838  0.15628  1.0000
  C   C246      1.0  0.45057  0.34064  0.15621  1.0000
  C   C247      1.0  0.50918  0.34431  0.15627  1.0000
  C   C248      1.0  0.50553  0.40656  0.15624  1.0000
  C   C249      1.0  0.30037  0.89373  0.15625  1.0000
  C   C250      1.0  0.29669  0.95602  0.15627  1.0000
  C   C251      1.0  0.35530  0.95968  0.15627  1.0000
  C   C252      1.0  0.35162  0.02196  0.15626  1.0000
  C   C253      1.0  0.36632  0.77285  0.15627  1.0000
  C   C254      1.0  0.36264  0.83513  0.15629  1.0000
  C   C255      1.0  0.41023  0.02563  0.15628  1.0000
  C   C256      1.0  0.40656  0.08790  0.15624  1.0000
  C   C257      1.0  0.43226  0.65197  0.15629  1.0000
  C   C258      1.0  0.42859  0.71424  0.15629  1.0000
  C   C259      1.0  0.46517  0.09157  0.15628  1.0000
  C   C260      1.0  0.46152  0.15384  0.15622  1.0000
  C   C261      1.0  0.49821  0.53110  0.15629  1.0000
  C   C262      1.0  0.49455  0.59337  0.15629  1.0000
  C   C263      1.0  0.52013  0.15751  0.15627  1.0000
  C   C264      1.0  0.51648  0.21977  0.15622  1.0000
  C   C265      1.0  0.56414  0.41023  0.15628  1.0000
  C   C266      1.0  0.56049  0.47249  0.15627  1.0000
  C   C267      1.0  0.57509  0.22344  0.15626  1.0000
  C   C268      1.0  0.57145  0.28570  0.15623  1.0000
  C   C269      1.0  0.63006  0.28937  0.15626  1.0000
  C   C270      1.0  0.62642  0.35162  0.15626  1.0000
  C   C271      1.0  0.42124  0.83879  0.15629  1.0000
  C   C272      1.0  0.41756  0.90107  0.15629  1.0000
  C   C273      1.0  0.47617  0.90474  0.15629  1.0000
  C   C274      1.0  0.47249  0.96702  0.15627  1.0000
  C   C275      1.0  0.48719  0.71791  0.15630  1.0000
  C   C276      1.0  0.48352  0.78019  0.15631  1.0000
  C   C277      1.0  0.53110  0.97069  0.15629  1.0000
  C   C278      1.0  0.52744  0.03296  0.15625  1.0000
  C   C279      1.0  0.55315  0.59704  0.15631  1.0000
  C   C280      1.0  0.54947  0.65931  0.15631  1.0000
  C   C281      1.0  0.58604  0.03664  0.15627  1.0000
  C   C282      1.0  0.58239  0.09890  0.15624  1.0000
  C   C283      1.0  0.61909  0.47617  0.15629  1.0000
  C   C284      1.0  0.61542  0.53844  0.15630  1.0000
  C   C285      1.0  0.64100  0.10258  0.15625  1.0000
  C   C286      1.0  0.63736  0.16483  0.15624  1.0000
  C   C287      1.0  0.68502  0.35530  0.15627  1.0000
  C   C288      1.0  0.68136  0.41756  0.15629  1.0000
  C   C289      1.0  0.69597  0.16851  0.15624  1.0000
  C   C290      1.0  0.69233  0.23076  0.15625  1.0000
  C   C291      1.0  0.75094  0.23443  0.15624  1.0000
  C   C292      1.0  0.74729  0.29669  0.15627  1.0000
  C   C293      1.0  0.54212  0.78386  0.15631  1.0000
  C   C294      1.0  0.53844  0.84614  0.15630  1.0000
  C   C295      1.0  0.59704  0.84982  0.15631  1.0000
  C   C296      1.0  0.59337  0.91209  0.15629  1.0000
  C   C297      1.0  0.60807  0.66299  0.15632  1.0000
  C   C298      1.0  0.60439  0.72526  0.15632  1.0000
  C   C299      1.0  0.65197  0.91577  0.15629  1.0000
  C   C300      1.0  0.64831  0.97803  0.15627  1.0000
  C   C301      1.0  0.67402  0.54212  0.15631  1.0000
  C   C302      1.0  0.67035  0.60439  0.15632  1.0000
  C   C303      1.0  0.70692  0.98171  0.15626  1.0000
  C   C304      1.0  0.70327  0.04396  0.15626  1.0000
  C   C305      1.0  0.73997  0.42124  0.15629  1.0000
  C   C306      1.0  0.73630  0.48352  0.15631  1.0000
  C   C307      1.0  0.76188  0.04764  0.15623  1.0000
  C   C308      1.0  0.75824  0.10989  0.15626  1.0000
  C   C309      1.0  0.80590  0.30037  0.15625  1.0000
  C   C310      1.0  0.80223  0.36264  0.15629  1.0000
  C   C311      1.0  0.81685  0.11356  0.15622  1.0000
  C   C312      1.0  0.81321  0.17582  0.15627  1.0000
  C   C313      1.0  0.87182  0.17949  0.15622  1.0000
  C   C314      1.0  0.86816  0.24176  0.15628  1.0000
  C   C315      1.0  0.66299  0.72894  0.15632  1.0000
  C   C316      1.0  0.65931  0.79122  0.15631  1.0000
  C   C317      1.0  0.71791  0.79490  0.15630  1.0000
  C   C318      1.0  0.71424  0.85716  0.15629  1.0000
  C   C319      1.0  0.72894  0.60807  0.15632  1.0000
  C   C320      1.0  0.72526  0.67035  0.15632  1.0000
  C   C321      1.0  0.77285  0.86084  0.15627  1.0000
  C   C322      1.0  0.76919  0.92310  0.15628  1.0000
  C   C323      1.0  0.79490  0.48719  0.15630  1.0000
  C   C324      1.0  0.79122  0.54947  0.15631  1.0000
  C   C325      1.0  0.82780  0.92677  0.15624  1.0000
  C   C326      1.0  0.82416  0.98902  0.15627  1.0000
  C   C327      1.0  0.86084  0.36632  0.15627  1.0000
  C   C328      1.0  0.85716  0.42859  0.15629  1.0000
  C   C329      1.0  0.88277  0.99269  0.15621  1.0000
  C   C330      1.0  0.87912  0.05495  0.15628  1.0000
  C   C331      1.0  0.92677  0.24543  0.15624  1.0000
  C   C332      1.0  0.92310  0.30771  0.15628  1.0000
  C   C333      1.0  0.78386  0.67402  0.15631  1.0000
  C   C334      1.0  0.78019  0.73630  0.15631  1.0000
  C   C335      1.0  0.83879  0.73997  0.15629  1.0000
  C   C336      1.0  0.83513  0.80223  0.15629  1.0000
  C   C337      1.0  0.84982  0.55315  0.15631  1.0000
  C   C338      1.0  0.84614  0.61542  0.15630  1.0000
  C   C339      1.0  0.89373  0.80590  0.15625  1.0000
  C   C340      1.0  0.89008  0.86816  0.15628  1.0000
  C   C341      1.0  0.91577  0.43226  0.15629  1.0000
  C   C342      1.0  0.91209  0.49455  0.15629  1.0000
  C   C343      1.0  0.94869  0.87182  0.15622  1.0000
  C   C344      1.0  0.94504  0.93408  0.15628  1.0000
  C   C345      1.0  0.98171  0.31137  0.15626  1.0000
  C   C346      1.0  0.97803  0.37366  0.15627  1.0000
  C   C347      1.0  0.90474  0.61909  0.15629  1.0000
  C   C348      1.0  0.90107  0.68136  0.15629  1.0000
  C   C349      1.0  0.95968  0.68502  0.15627  1.0000
  C   C350      1.0  0.95602  0.74729  0.15627  1.0000
  C   C351      1.0  0.97069  0.49821  0.15629  1.0000
  C   C352      1.0  0.96702  0.56049  0.15627  1.0000
  C   C353      1.0  0.01463  0.75094  0.15624  1.0000
  C   C354      1.0  0.01097  0.81321  0.15627  1.0000
  C   C355      1.0  0.03664  0.37732  0.15627  1.0000
  C   C356      1.0  0.03296  0.43960  0.15625  1.0000
  C   C357      1.0  0.02563  0.56414  0.15628  1.0000
  C   C358      1.0  0.02196  0.62642  0.15626  1.0000
  C   C359      1.0  0.08057  0.63006  0.15626  1.0000
  C   C360      1.0  0.07691  0.69233  0.15625  1.0000
  C   C361      1.0  0.09157  0.44325  0.15628  1.0000
  C   C362      1.0  0.08790  0.50553  0.15624  1.0000
  C   C363      1.0  0.14652  0.50918  0.15627  1.0000
  C   C364      1.0  0.14285  0.57145  0.15623  1.0000
