data_image0
_chemical_formula_structural       C16
_chemical_formula_sum              "C16"
_cell_length_a       5.0346
_cell_length_b       5.0346
_cell_length_c       5.0346
_cell_angle_alpha    60
_cell_angle_beta     60
_cell_angle_gamma    60

_space_group_name_H-M_alt    "P 1"
_space_group_IT_number       1

loop_
  _space_group_symop_operation_xyz
  'x, y, z'

loop_
  _atom_site_type_symbol
  _atom_site_label
  _atom_site_symmetry_multiplicity
  _atom_site_fract_x
  _atom_site_fract_y
  _atom_site_fract_z
  _atom_site_occupancy
  C   C1        1.0  0.01589  0.99023  0.00977  1.0000
  C   C2        1.0  0.06623  0.14283  0.16021  1.0000
  C   C3        1.0  0.10280  0.95982  0.47925  1.0000
  C   C4        1.0  0.17683  0.03725  0.65951  1.0000
  C   C5        1.0  0.09513  0.46607  0.98079  1.0000
  C   C6        1.0  0.14569  0.61774  0.13220  1.0000
  C   C7        1.0  0.98500  0.57037  0.48264  1.0000
  C   C8        1.0  0.05853  0.64919  0.66203  1.0000
  C   C9        1.0  0.59511  0.96528  0.98236  1.0000
  C   C10       1.0  0.64569  0.11756  0.13288  1.0000
  C   C11       1.0  0.48524  0.07018  0.48332  1.0000
  C   C12       1.0  0.55866  0.14834  0.66334  1.0000
  C   C13       1.0  0.51558  0.48988  0.01061  1.0000
  C   C14       1.0  0.56603  0.64221  0.16133  1.0000
  C   C15       1.0  0.60285  0.45898  0.48025  1.0000
  C   C16       1.0  0.67661  0.53708  0.66025  1.0000
